Version 4
SHEET 1 1604 936
WIRE 48 192 -48 192
WIRE 304 192 208 192
WIRE 432 192 304 192
WIRE 672 192 592 192
WIRE 304 240 304 192
WIRE 672 240 672 192
WIRE -48 288 -48 192
WIRE -48 448 -48 368
WIRE 304 448 304 400
WIRE 672 448 672 400
FLAG -48 448 0
FLAG 304 192 P1
FLAG 672 192 P2
FLAG 304 448 0
FLAG 672 448 0
FLAG -48 192 P0
SYMBOL Pipe 128 192 R0
WINDOW 0 -45 -31 Left 2
WINDOW 39 -57 34 Left 2
SYMATTR InstName X1
SYMATTR SpiceLine length=20
SYMBOL Pipe 512 192 R0
WINDOW 0 -45 -31 Left 2
WINDOW 39 -57 34 Left 2
SYMATTR InstName X2
SYMATTR SpiceLine length=50
SYMBOL Pipe 304 320 R90
WINDOW 0 -29 -29 VLeft 2
WINDOW 39 10 -28 VLeft 2
SYMATTR InstName X3
SYMATTR SpiceLine length=30
SYMBOL current -48 368 M180
WINDOW 123 0 0 Left 0
WINDOW 39 0 0 Left 0
WINDOW 0 26 78 Left 2
WINDOW 3 20 2 Left 2
SYMATTR InstName I1
SYMATTR Value 1
SYMBOL Pipe 672 320 R90
WINDOW 0 -29 -29 VLeft 2
WINDOW 39 10 -28 VLeft 2
SYMATTR InstName X4
SYMATTR SpiceLine length=30
TEXT -8 328 Left 2 !.dc I1 -100 100 1
