Version 4
SHEET 1 1604 936
WIRE 48 192 -48 192
WIRE 304 192 208 192
WIRE 432 192 304 192
WIRE 672 192 592 192
WIRE 304 240 304 192
WIRE -48 320 -48 192
WIRE 672 352 672 192
WIRE 752 352 672 352
WIRE 1008 352 912 352
WIRE 304 432 304 400
WIRE 304 432 176 432
WIRE 1008 432 1008 352
WIRE 672 448 672 352
WIRE -48 480 -48 400
WIRE 176 512 176 432
WIRE 1008 592 1008 512
WIRE 304 672 304 432
WIRE 432 672 304 672
WIRE 672 672 672 608
WIRE 672 672 592 672
WIRE 176 688 176 592
WIRE 672 736 672 672
WIRE 672 896 672 816
FLAG -48 480 0
FLAG 1008 592 0
FLAG 672 896 0
FLAG 176 688 0
FLAG 304 192 P1
FLAG 672 192 P2
FLAG 1008 352 P3
FLAG 672 672 P4
FLAG 304 432 P5
SYMBOL voltage -48 304 R0
WINDOW 123 0 0 Left 0
WINDOW 39 0 0 Left 0
SYMATTR InstName V1
SYMATTR Value 15
SYMBOL Pipe 128 192 R0
WINDOW 0 -45 -31 Left 2
WINDOW 39 -57 34 Left 2
SYMATTR InstName X1
SYMATTR SpiceLine length=20
SYMBOL Pipe 512 192 R0
WINDOW 0 -45 -31 Left 2
WINDOW 39 -57 34 Left 2
SYMATTR InstName X5
SYMATTR SpiceLine length=50
SYMBOL Pipe 832 352 R0
WINDOW 0 -45 -31 Left 2
WINDOW 39 -110 35 Left 2
SYMATTR InstName X6
SYMATTR SpiceLine length=6 dia=25.4
SYMBOL Pipe 672 528 R90
WINDOW 0 -29 -29 VLeft 2
WINDOW 39 10 -28 VLeft 2
SYMATTR InstName X4
SYMATTR SpiceLine length=10
SYMBOL Pipe 512 672 R0
WINDOW 0 -45 -31 Left 2
WINDOW 39 -57 34 Left 2
SYMATTR InstName X3
SYMATTR SpiceLine length=125
SYMBOL Pipe 304 320 R90
WINDOW 0 -29 -29 VLeft 2
WINDOW 39 10 -28 VLeft 2
SYMATTR InstName X2
SYMATTR SpiceLine length=30
SYMBOL current 1008 432 R0
WINDOW 123 0 0 Left 0
WINDOW 39 0 0 Left 0
SYMATTR InstName I1
SYMATTR Value 2
SYMBOL current 672 736 R0
WINDOW 123 0 0 Left 0
WINDOW 39 0 0 Left 0
SYMATTR InstName I3
SYMATTR Value 3
SYMBOL current 176 512 R0
WINDOW 123 0 0 Left 0
WINDOW 39 0 0 Left 0
SYMATTR InstName I4
SYMATTR Value 5
TEXT -48 120 Left 2 !.op
